*KEYWORD
*TITLE
Linear Constraint Equations
$
$  LSTC Example
$
$  Last Modified: September 3, 1997
$
$   Units: mm, s
$
$$$$$$$$$$$$$$$$$$$$$$$$$$$$$$$$$$$$$$$$$$$$$$$$$$$$$$$$$$$$$$$$$$$$$$$$$$$$$$$$
$
$$$$  Control Ouput
$
$$$$$$$$$$$$$$$$$$$$$$$$$$$$$$$$$$$$$$$$$$$$$$$$$$$$$$$$$$$$$$$$$$$$$$$$$$$$$$$$
$
$...>....1....>....2....>....3....>....4....>....5....>....6....>....7....>....8
$
*CONTROL_TERMINATION
$   endtim    endcyc     dtmin    endneg    endmas
    0.0005
$
*CONTROL_CONTACT
$   slsfac    rwpnal    islchk    shlthk    penopt    thkchg     orien
       0.1                   2
$
$   usrstr    usrfac     nsbcs    interm    xpenen

$
*CONTROL_HOURGLASS
$      ihq        qh
         4
$
*CONTROL_SHELL
$   wrpang    itrist     irnxx    istupd    theory       bwc     miter
                                                 1
$
$
*DATABASE_BINARY_D3PLOT
$       dt      lcdt
   0.00002
$
*DATABASE_BINARY_D3THDT
$       dt      lcdt
   0.00001
$
*DATABASE_EXTENT_BINARY
$    neiph     neips    maxint    strflg    sigflg    epsflg    rltflg    engflg
                                       1
$
$   cmpflg    ieverp    beamip

$
$
*DATABASE_HISTORY_NODE
$      id1       id2       id3       id4       id5       id6       id7       id8
$...>....1....>....2....>....3....>....4....>....5....>....6....>....7....>....8
        40        41        42
$      
*DATABASE_NODOUT
$       dt
   0.00001
$
$$$$$$$$$$$$$$$$$$$$$$$$$$$$$$$$$$$$$$$$$$$$$$$$$$$$$$$$$$$$$$$$$$$$$$$$$$$$$$$$
$
$$$$  Constraints and Boundary Conditions
$
$$$$$$$$$$$$$$$$$$$$$$$$$$$$$$$$$$$$$$$$$$$$$$$$$$$$$$$$$$$$$$$$$$$$$$$$$$$$$$$$
$
$...>....1....>....2....>....3....>....4....>....5....>....6....>....7....>....8
$
$$$$  nodes 40 and 42 are constrained to have identical z-direction motion
$
*CONSTRAINED_LINEAR
$      num
         2
$
$      nid      dofx      dofy      dofz    dofrx      dofry     dofrz      coef
        40                             1                                    1.00
        42                             1                                   -1.00
$
$
$$$$  node 41 is displaced in the z-direction according to load curve 1
$
*BOUNDARY_PRESCRIBED_MOTION_NODE
$      nid       dof       vad      lcid        sf       vid
        41         3         2         1       1.0
$
*DEFINE_CURVE
$     lcid      sidr      scla      sclo      offa      offo
         1
$
$           abscissa            ordinate
                 0.0                 0.0
              0.0005               -15.0
              0.0015               -15.1
$
$$$$$$$$$$$$$$$$$$$$$$$$$$$$$$$$$$$$$$$$$$$$$$$$$$$$$$$$$$$$$$$$$$$$$$$$$$$$$$$$
$
$$$$  Define Parts and Materials
$
$$$$$$$$$$$$$$$$$$$$$$$$$$$$$$$$$$$$$$$$$$$$$$$$$$$$$$$$$$$$$$$$$$$$$$$$$$$$$$$$
$
*PART
Impacted Material 
$      pid       sid       mid     eosid      hgid    adpopt
         1         1         1         0         0         0
$
$
$$$$$$  Materials
$
*MAT_ELASTIC
$      mid        ro         e        pr        da        db         k
         1   2.00e-8  100000.0     0.300
$
$
$$$$$$  Sections
$
*SECTION_SHELL
$      sid    elform      shrf       nip     propt   qr/irid     icomp
         1         6   0.83333       2.0       3.0
$
$       t1        t2        t3        t4      nloc
       2.0       2.0       2.0       2.0
$
$$$$$$$$$$$$$$$$$$$$$$$$$$$$$$$$$$$$$$$$$$$$$$$$$$$$$$$$$$$$$$$$$$$$$$$$$$$$$$$$
$
$$$$  Define Nodes and Elements
$
$$$$$$$$$$$$$$$$$$$$$$$$$$$$$$$$$$$$$$$$$$$$$$$$$$$$$$$$$$$$$$$$$$$$$$$$$$$$$$$$
$
$...>....1....>....2....>....3....>....4....>....5....>....6....>....7....>....8
$
$$$$  z-translational constraints are placed on several nodes
$
*NODE
$    nid               x               y               z      tc      rc
       1    0.000000E+00    0.000000E+00    0.000000E+00       3       0
       2    5.000000E+00    0.000000E+00    0.000000E+00       3       0
       3    1.000000E+01    0.000000E+00    0.000000E+00       3       0
       4    1.500000E+01    0.000000E+00    0.000000E+00       3       0
       5    2.000000E+01    0.000000E+00    0.000000E+00       3       0
       6    2.500000E+01    0.000000E+00    0.000000E+00       3       0
       7    3.000000E+01    0.000000E+00    0.000000E+00       3       0
       8    3.500000E+01    0.000000E+00    0.000000E+00       3       0
       9    4.000000E+01    0.000000E+00    0.000000E+00       3       0
      10    0.000000E+00    5.000000E+00    0.000000E+00       3       0
      11    5.000000E+00    5.000000E+00    0.000000E+00       0       0
      12    1.000000E+01    5.000000E+00    0.000000E+00       0       0
      13    1.500000E+01    5.000000E+00    0.000000E+00       0       0
      14    2.000000E+01    5.000000E+00    0.000000E+00       0       0
      15    2.500000E+01    5.000000E+00    0.000000E+00       0       0
      16    3.000000E+01    5.000000E+00    0.000000E+00       0       0
      17    3.500000E+01    5.000000E+00    0.000000E+00       0       0
      18    4.000000E+01    5.000000E+00    0.000000E+00       3       0
      19    0.000000E+00    1.000000E+01    0.000000E+00       3       0
      20    5.000000E+00    1.000000E+01    0.000000E+00       0       0
$ ... 61 like lines cut
$
$$$$$  Elements
$
*ELEMENT_SHELL
$    eid     pid      n1      n2      n3      n4
       1       1       1       2      11      10
       2       1       2       3      12      11
       3       1       3       4      13      12
       4       1       4       5      14      13
       5       1       5       6      15      14
       6       1       6       7      16      15
       7       1       7       8      17      16
       8       1       8       9      18      17
       9       1      10      11      20      19
      10       1      11      12      21      20
      11       1      12      13      22      21
      12       1      13      14      23      22
      13       1      14      15      24      23
      14       1      15      16      25      24
      15       1      16      17      26      25
      16       1      17      18      27      26
      17       1      19      20      29      28
      18       1      20      21      30      29
      19       1      21      22      31      30
      20       1      22      23      32      31
$ ... 44 like lines cut
$
*END
